data_image0
_chemical_formula_structural       BCBNBNBNBNBNBNBNBNBNBNBNBNBNBNBNBNBNBNBNBNBNBNBNBN
_chemical_formula_sum              "B25 C1 N24"
_cell_length_a       12.5
_cell_length_b       12.499999999999998
_cell_length_c       40.0
_cell_angle_alpha    90.0
_cell_angle_beta     90.0
_cell_angle_gamma    120.00000000000001

_space_group_name_H-M_alt    "P 1"
_space_group_IT_number       1

loop_
  _space_group_symop_operation_xyz
  'x, y, z'

loop_
  _atom_site_type_symbol
  _atom_site_label
  _atom_site_symmetry_multiplicity
  _atom_site_fract_x
  _atom_site_fract_y
  _atom_site_fract_z
  _atom_site_occupancy
  B   B1        1.0  0.9976804349100771  0.9953685857461482  0.5000000000002992  1.0000
  C   C1        1.0  0.06668181258244056  0.13336662934962365  0.5000000000002526  1.0000
  B   B2        1.0  0.9975018647432293  0.20224904672895547  0.5000000000003141  1.0000
  N   N1        1.0  0.06576762751618496  0.3350376663068243  0.5000000000004836  1.0000
  B   B3        1.0  0.9993870963884656  0.4009353455350928  0.5000000000003703  1.0000
  N   N2        1.0  0.06610666022800082  0.5337119921820794  0.5000000000004846  1.0000
  B   B4        1.0  0.9995149985003039  0.5997581009601735  0.5000000000003489  1.0000
  N   N3        1.0  0.06632044525770528  0.7325525774305368  0.5000000000005057  1.0000
  B   B5        1.0  0.999668560997366  0.7985549767949341  0.5000000000003721  1.0000
  N   N4        1.0  0.06598160763021177  0.9308730226113353  0.5000000000006657  1.0000
  B   B6        1.0  0.19991170970839078  8.039623536186615e-05  0.5000000000003986  1.0000
  N   N5        1.0  0.26933523730510844  0.13389753384323855  0.5000000000006165  1.0000
  B   B7        1.0  0.20479188972560075  0.20227060084699788  0.5000000000003122  1.0000
  N   N6        1.0  0.2692494954400261  0.33514267235233275  0.5000000000004698  1.0000
  B   B8        1.0  0.19978695378768208  0.39966392493829206  0.5000000000003447  1.0000
  N   N7        1.0  0.26641945598603745  0.5329926452811063  0.5000000000007925  1.0000
  B   B9        1.0  0.19957867152956113  0.5999047665485762  0.5000000000003778  1.0000
  N   N8        1.0  0.26652303359066826  0.7334848787945084  0.5000000000006742  1.0000
  B   B10       1.0  0.19971829156383025  0.7999882279820995  0.5000000000003592  1.0000
  N   N9        1.0  0.26679533219261153  0.9337813762537713  0.5000000000006961  1.0000
  B   B11       1.0  0.4003713445843469  0.00046195968971755137  0.5000000000003596  1.0000
  N   N10       1.0  0.4676688050731109  0.1335843475614106  0.5000000000005315  1.0000
  B   B12       1.0  0.4016248236737027  0.2001581566296302  0.5000000000003817  1.0000
  N   N11       1.0  0.46748198577712474  0.3334448525938955  0.5000000000005872  1.0000
  B   B13       1.0  0.4016245986346537  0.4010395522987882  0.500000000000371  1.0000
  N   N12       1.0  0.4676796671515055  0.5339176753799871  0.5000000000004761  1.0000
  B   B14       1.0  0.40030716037893266  0.599982077330124  0.5000000000003793  1.0000
  N   N13       1.0  0.467040957692122  0.7336040883585858  0.5000000000007108  1.0000
  B   B15       1.0  0.4001942582281252  0.800333350646467  0.5000000000003717  1.0000
  N   N14       1.0  0.4671156144250239  0.9340297507436016  0.5000000000005015  1.0000
  B   B16       1.0  0.600266996242763  0.000516507838208462  0.5000000000003606  1.0000
  N   N15       1.0  0.6661692260132991  0.13358916241762958  0.5000000000005538  1.0000
  B   B17       1.0  0.6002271471406759  0.20021928746099296  0.5000000000003351  1.0000
  N   N16       1.0  0.6667513272179343  0.3333094059618296  0.5000000000004614  1.0000
  B   B18       1.0  0.6004141577586876  0.4000184809757226  0.5000000000003407  1.0000
  N   N17       1.0  0.6668843121394451  0.5331070078074792  0.500000000000601  1.0000
  B   B19       1.0  0.6003707268341453  0.5998882594997489  0.5000000000003512  1.0000
  N   N18       1.0  0.6662938640796737  0.7327360559497107  0.5000000000005177  1.0000
  B   B20       1.0  0.6003622132145189  0.8001176410781363  0.5000000000003632  1.0000
  N   N19       1.0  0.667100400379036  0.9338997715300655  0.5000000000007065  1.0000
  B   B21       1.0  0.8002320542140765  0.00016624259222473576  0.5000000000003982  1.0000
  N   N20       1.0  0.8646584216789802  0.13390396406281285  0.50000000000063  1.0000
  B   B22       1.0  0.7986962757851225  0.20014845515696697  0.500000000000383  1.0000
  N   N21       1.0  0.8660139934303837  0.3333561030399675  0.5000000000005914  1.0000
  B   B23       1.0  0.7997423696960282  0.3999801287335075  0.5000000000003413  1.0000
  N   N22       1.0  0.8662569225197089  0.5330215062357287  0.5000000000005952  1.0000
  B   B24       1.0  0.7999140558869914  0.5997224412030686  0.5000000000003518  1.0000
  N   N23       1.0  0.8663599338341933  0.7328028548947938  0.5000000000007023  1.0000
  B   B25       1.0  0.7989438355385579  0.7986786805185875  0.5000000000003727  1.0000
  N   N24       1.0  0.8648837633453402  0.9310103093750328  0.5000000000006504  1.0000
